/*--------------------------------*- C++ -*----------------------------------*\
  =========                 |
  \\      /  F ield         | OpenFOAM: The Open Source CFD Toolbox
   \\    /   O peration     | Website:  https://openfoam.org
    \\  /    A nd           | Version:  8
     \\/     M anipulation  |
\*---------------------------------------------------------------------------*/
FoamFile
{
    version     2.0;
    format      binary;
    class       polyBoundaryMesh;
    location    "1/polyMesh";
    object      boundary;
}
// * * * * * * * * * * * * * * * * * * * * * * * * * * * * * * * * * * * * * //

6
(
    frontAndBack
    {
        type            patch;
        nFaces          16384;
        startFace       6738174;
    }
    inlet
    {
        type            patch;
        nFaces          4096;
        startFace       6754558;
    }
    outlet
    {
        type            patch;
        nFaces          4096;
        startFace       6758654;
    }
    lowerWall
    {
        type            wall;
        inGroups        List<word> 1(wall);
        nFaces          8192;
        startFace       6762750;
    }
    upperWall
    {
        type            patch;
        nFaces          8192;
        startFace       6770942;
    }
    AUV
    {
        type            wall;
        inGroups        List<word> 
2
(
AUVGroup
wall
)
;
        nFaces          418474;
        startFace       6779134;
    }
)

// ************************************************************************* //
