/*--------------------------------*- C++ -*----------------------------------*\
  =========                 |
  \\      /  F ield         | OpenFOAM: The Open Source CFD Toolbox
   \\    /   O peration     | Website:  https://openfoam.org
    \\  /    A nd           | Version:  8
     \\/     M anipulation  |
\*---------------------------------------------------------------------------*/
FoamFile
{
    version     2.0;
    format      ascii;
    class       dictionary;
    object      transportProperties;
}
// * * * * * * * * * * * * * * * * * * * * * * * * * * * * * * * * * * * * * //

transportModel  Newtonian;

nu              [0 2 -1 0 0 0 0] 25; // Kinematic viscosity for time-reversible flow

/* 
nu              [0 2 -1 0 0 0 0] 25; // Kinematic viscosity for laminar flow
nu              [0 2 -1 0 0 0 0] 25; // Kinematic viscosity for turbulent flow
nu              [0 2 -1 0 0 0 0] 25; // Kinematic viscosity for stability paper conditions after 500
*/

// ************************************************************************* //
